alanine_neutral_conf19
     RDKit          3D

 13 12  0  0  0  0  0  0  0  0999 V2000
   -0.4346    1.4976   -0.1482 N   0  0  0  0  0  0  0  0  0  0  0  0
   -0.3695    0.1199    0.3930 C   0  0  1  0  0  0  0  0  0  0  0  0
   -1.3136   -0.7762   -0.3962 C   0  0  0  0  0  0  0  0  0  0  0  0
    1.0627   -0.4295    0.3465 C   0  0  0  0  0  0  0  0  0  0  0  0
    1.3977   -1.6027    0.3735 O   0  0  0  0  0  0  0  0  0  0  0  0
    2.0064    0.5403    0.3108 O   0  0  0  0  0  0  0  0  0  0  0  0
   -0.1788    1.4724   -1.1359 H   0  0  0  0  0  0  0  0  0  0  0  0
    0.3223    2.0276    0.2939 H   0  0  0  0  0  0  0  0  0  0  0  0
   -0.6715    0.1497    1.4454 H   0  0  0  0  0  0  0  0  0  0  0  0
   -1.3245   -1.7898    0.0194 H   0  0  0  0  0  0  0  0  0  0  0  0
   -1.0075   -0.8573   -1.4456 H   0  0  0  0  0  0  0  0  0  0  0  0
   -2.3396   -0.3934   -0.3666 H   0  0  0  0  0  0  0  0  0  0  0  0
    2.8505    0.0412    0.3102 H   0  0  0  0  0  0  0  0  0  0  0  0
  1  2  1  0
  2  3  1  0
  2  4  1  0
  4  5  2  0
  4  6  1  0
  1  7  1  0
  1  8  1  0
  2  9  1  1
  3 10  1  0
  3 11  1  0
  3 12  1  0
  6 13  1  0
M  END
>  <MMFF_E_kcal_per_mol>  (1) 
20.377805544811185

$$$$
alanine_neutral_conf2
     RDKit          3D

 13 12  0  0  0  0  0  0  0  0999 V2000
   -0.6338    1.5760   -0.2454 N   0  0  0  0  0  0  0  0  0  0  0  0
   -0.3233    0.2604    0.3587 C   0  0  1  0  0  0  0  0  0  0  0  0
   -1.1689   -0.8115   -0.3151 C   0  0  0  0  0  0  0  0  0  0  0  0
    1.1703   -0.0491    0.2146 C   0  0  0  0  0  0  0  0  0  0  0  0
    2.0105    0.6650   -0.3129 O   0  0  0  0  0  0  0  0  0  0  0  0
    1.5291   -1.2208    0.7748 O   0  0  0  0  0  0  0  0  0  0  0  0
   -0.0035    2.2683    0.1662 H   0  0  0  0  0  0  0  0  0  0  0  0
   -0.3611    1.5492   -1.2304 H   0  0  0  0  0  0  0  0  0  0  0  0
   -0.5547    0.3153    1.4278 H   0  0  0  0  0  0  0  0  0  0  0  0
   -0.9148   -0.9148   -1.3764 H   0  0  0  0  0  0  0  0  0  0  0  0
   -1.0095   -1.7882    0.1546 H   0  0  0  0  0  0  0  0  0  0  0  0
   -2.2366   -0.5782   -0.2393 H   0  0  0  0  0  0  0  0  0  0  0  0
    2.4963   -1.2717    0.6230 H   0  0  0  0  0  0  0  0  0  0  0  0
  1  2  1  0
  2  3  1  0
  2  4  1  0
  4  5  2  0
  4  6  1  0
  1  7  1  0
  1  8  1  0
  2  9  1  1
  3 10  1  0
  3 11  1  0
  3 12  1  0
  6 13  1  0
M  END
>  <MMFF_E_kcal_per_mol>  (2) 
20.515512698386601

$$$$
alanine_neutral_conf122
     RDKit          3D

 13 12  0  0  0  0  0  0  0  0999 V2000
   -0.2432    1.4327   -0.4381 N   0  0  0  0  0  0  0  0  0  0  0  0
   -0.2853    0.1249    0.2484 C   0  0  1  0  0  0  0  0  0  0  0  0
   -1.2562   -0.7911   -0.4826 C   0  0  0  0  0  0  0  0  0  0  0  0
    1.1160   -0.4944    0.3143 C   0  0  0  0  0  0  0  0  0  0  0  0
    1.4061   -1.6772    0.2341 O   0  0  0  0  0  0  0  0  0  0  0  0
    2.0824    0.4239    0.5575 O   0  0  0  0  0  0  0  0  0  0  0  0
    0.5185    1.9754   -0.0234 H   0  0  0  0  0  0  0  0  0  0  0  0
   -1.1037    1.9416   -0.2461 H   0  0  0  0  0  0  0  0  0  0  0  0
   -0.6187    0.2725    1.2818 H   0  0  0  0  0  0  0  0  0  0  0  0
   -1.3330   -1.7590    0.0250 H   0  0  0  0  0  0  0  0  0  0  0  0
   -2.2603   -0.3547   -0.5208 H   0  0  0  0  0  0  0  0  0  0  0  0
   -0.9278   -0.9863   -1.5100 H   0  0  0  0  0  0  0  0  0  0  0  0
    2.9052   -0.1083    0.5599 H   0  0  0  0  0  0  0  0  0  0  0  0
  1  2  1  0
  2  3  1  0
  2  4  1  0
  4  5  2  0
  4  6  1  0
  1  7  1  0
  1  8  1  0
  2  9  1  1
  3 10  1  0
  3 11  1  0
  3 12  1  0
  6 13  1  0
M  END
>  <MMFF_E_kcal_per_mol>  (3) 
21.50790392647751

$$$$
alanine_neutral_conf30
     RDKit          3D

 13 12  0  0  0  0  0  0  0  0999 V2000
   -0.4284    1.5329   -0.4983 N   0  0  0  0  0  0  0  0  0  0  0  0
   -0.2466    0.2694    0.2444 C   0  0  1  0  0  0  0  0  0  0  0  0
   -1.0958   -0.8080   -0.4172 C   0  0  0  0  0  0  0  0  0  0  0  0
    1.2432   -0.0971    0.2918 C   0  0  0  0  0  0  0  0  0  0  0  0
    2.1807    0.6843    0.2083 O   0  0  0  0  0  0  0  0  0  0  0  0
    1.4800   -1.4004    0.5401 O   0  0  0  0  0  0  0  0  0  0  0  0
    0.2697    2.2044   -0.1695 H   0  0  0  0  0  0  0  0  0  0  0  0
   -1.3414    1.9270   -0.2808 H   0  0  0  0  0  0  0  0  0  0  0  0
   -0.5703    0.4186    1.2807 H   0  0  0  0  0  0  0  0  0  0  0  0
   -2.1466   -0.5034   -0.4776 H   0  0  0  0  0  0  0  0  0  0  0  0
   -0.7438   -1.0289   -1.4314 H   0  0  0  0  0  0  0  0  0  0  0  0
   -1.0592   -1.7421    0.1538 H   0  0  0  0  0  0  0  0  0  0  0  0
    2.4586   -1.4569    0.5557 H   0  0  0  0  0  0  0  0  0  0  0  0
  1  2  1  0
  2  3  1  0
  2  4  1  0
  4  5  2  0
  4  6  1  0
  1  7  1  0
  1  8  1  0
  2  9  1  1
  3 10  1  0
  3 11  1  0
  3 12  1  0
  6 13  1  0
M  END
>  <MMFF_E_kcal_per_mol>  (4) 
22.457548306465821

$$$$
alanine_neutral_conf6
     RDKit          3D

 13 12  0  0  0  0  0  0  0  0999 V2000
   -0.2259    1.5680   -0.2273 N   0  0  0  0  0  0  0  0  0  0  0  0
   -0.2949    0.2647    0.4670 C   0  0  1  0  0  0  0  0  0  0  0  0
   -1.1670   -0.7161   -0.3052 C   0  0  0  0  0  0  0  0  0  0  0  0
    1.1020   -0.3348    0.6453 C   0  0  0  0  0  0  0  0  0  0  0  0
    1.4533   -1.0916    1.5370 O   0  0  0  0  0  0  0  0  0  0  0  0
    1.9595   -0.0145   -0.3518 O   0  0  0  0  0  0  0  0  0  0  0  0
    0.4059    1.4622   -1.0255 H   0  0  0  0  0  0  0  0  0  0  0  0
   -1.1392    1.8049   -0.6091 H   0  0  0  0  0  0  0  0  0  0  0  0
   -0.7118    0.4399    1.4644 H   0  0  0  0  0  0  0  0  0  0  0  0
   -0.7692   -0.9029   -1.3093 H   0  0  0  0  0  0  0  0  0  0  0  0
   -2.1903   -0.3393   -0.4076 H   0  0  0  0  0  0  0  0  0  0  0  0
   -1.2145   -1.6813    0.2111 H   0  0  0  0  0  0  0  0  0  0  0  0
    2.7922   -0.4590   -0.0890 H   0  0  0  0  0  0  0  0  0  0  0  0
  1  2  1  0
  2  3  1  0
  2  4  1  0
  4  5  2  0
  4  6  1  0
  1  7  1  0
  1  8  1  0
  2  9  1  1
  3 10  1  0
  3 11  1  0
  3 12  1  0
  6 13  1  0
M  END
>  <MMFF_E_kcal_per_mol>  (5) 
22.639059532100035

$$$$
alanine_neutral_conf40
     RDKit          3D

 13 12  0  0  0  0  0  0  0  0999 V2000
   -0.3706    1.6457   -0.2511 N   0  0  0  0  0  0  0  0  0  0  0  0
   -0.2079    0.3124    0.3618 C   0  0  1  0  0  0  0  0  0  0  0  0
   -1.1105   -0.7071   -0.3203 C   0  0  0  0  0  0  0  0  0  0  0  0
    1.2482   -0.1434    0.2484 C   0  0  0  0  0  0  0  0  0  0  0  0
    2.0482    0.1732   -0.6195 O   0  0  0  0  0  0  0  0  0  0  0  0
    1.6007   -1.0170    1.2140 O   0  0  0  0  0  0  0  0  0  0  0  0
    0.0961    1.6433   -1.1614 H   0  0  0  0  0  0  0  0  0  0  0  0
   -1.3560    1.8273   -0.4308 H   0  0  0  0  0  0  0  0  0  0  0  0
   -0.4642    0.4003    1.4230 H   0  0  0  0  0  0  0  0  0  0  0  0
   -2.1645   -0.4209   -0.2365 H   0  0  0  0  0  0  0  0  0  0  0  0
   -0.8673   -0.8098   -1.3842 H   0  0  0  0  0  0  0  0  0  0  0  0
   -0.9945   -1.6959    0.1371 H   0  0  0  0  0  0  0  0  0  0  0  0
    2.5422   -1.2081    1.0195 H   0  0  0  0  0  0  0  0  0  0  0  0
  1  2  1  0
  2  3  1  0
  2  4  1  0
  4  5  2  0
  4  6  1  0
  1  7  1  0
  1  8  1  0
  2  9  1  1
  3 10  1  0
  3 11  1  0
  3 12  1  0
  6 13  1  0
M  END
>  <MMFF_E_kcal_per_mol>  (6) 
22.841556941516846

$$$$
