 xtb: 6.7.1 (edcfbbe)
          09262511373D

 13 12  0     0  0            999 V2000
   -0.9069    0.9586    0.5350 C   0  0  0  0  0  0  0  0  0  0  0  0
   -0.2311   -0.3473    0.1383 C   0  0  0  0  0  0  0  0  0  0  0  0
   -0.9506   -0.9159   -1.0194 N   0  0  0  0  0  0  0  0  0  0  0  0
    1.2526   -0.1643   -0.2096 C   0  0  0  0  0  0  0  0  0  0  0  0
    1.8799   -0.7969   -1.0480 O   0  0  0  0  0  0  0  0  0  0  0  0
    1.8942    0.7252    0.5738 O   0  0  0  0  0  0  0  0  0  0  0  0
   -0.4587    1.3715    1.4453 H   0  0  0  0  0  0  0  0  0  0  0  0
   -0.8091    1.7154   -0.2518 H   0  0  0  0  0  0  0  0  0  0  0  0
   -1.9736    0.8083    0.7357 H   0  0  0  0  0  0  0  0  0  0  0  0
   -0.2771   -1.0610    0.9686 H   0  0  0  0  0  0  0  0  0  0  0  0
   -1.8364   -1.3101   -0.7091 H   0  0  0  0  0  0  0  0  0  0  0  0
   -0.3977   -1.6900   -1.3952 H   0  0  0  0  0  0  0  0  0  0  0  0
    2.8144    0.7062    0.2364 H   0  0  0  0  0  0  0  0  0  0  0  0
  1  2  1  0  0  0  0
  2  3  1  0  0  0  0
  2  4  1  0  0  0  0
  4  5  2  0  0  0  0
  4  6  1  0  0  0  0
  1  7  1  0  0  0  0
  1  8  1  0  0  0  0
  1  9  1  0  0  0  0
  2 10  1  0  0  0  0
  3 11  1  0  0  0  0
  3 12  1  0  0  0  0
  6 13  1  0  0  0  0
M  END
